<?xml version="1.0" encoding="UTF-8"?>

<!-- generated on 03/16/21 12:26:01 by Eclipse SUMO netconvert Version 1.7.0
<configuration xmlns:xsi="http://www.w3.org/2001/XMLSchema-instance" xsi:noNamespaceSchemaLocation="http://sumo.dlr.de/xsd/netconvertConfiguration.xsd">

    <input>
        <node-files value="E:\class\class.nod.xml"/>
        <edge-files value="E:\class\class.edge.xml"/>
        <connection-files value="E:\class\class.con.xml"/>
    </input>

    <output>
        <output-file value="E:\class\classtest3.net.xml"/>
    </output>

    <report>
        <aggregate-warnings value="5"/>
    </report>

</configuration>
-->

<net version="1.6" junctionCornerDetail="5" limitTurnSpeed="5.50" xmlns:xsi="http://www.w3.org/2001/XMLSchema-instance" xsi:noNamespaceSchemaLocation="http://sumo.dlr.de/xsd/net_file.xsd">

    <location netOffset="100.00,150.00" convBoundary="0.00,0.00,250.00,300.00" origBoundary="-100.00,-150.00,150.00,150.00" projParameter="!"/>

    <edge id=":L1_0" function="internal">
        <lane id=":L1_0_0" index="0" speed="7.08" length="11.29" width="2.00" shape="4.00,253.00 0.94,252.56 -1.25,251.25 -2.56,249.06 -3.00,246.00"/>
    </edge>
    <edge id=":L1_1" function="internal">
        <lane id=":L1_1_0" index="0" speed="2.89" length="2.92" width="2.00" shape="4.00,251.00 3.25,250.50 3.00,250.00 3.25,249.50 4.00,249.00"/>
    </edge>
    <edge id=":L1_2" function="internal">
        <lane id=":L1_2_0" index="0" speed="3.09" length="1.61" width="2.00" shape="3.00,246.00 3.06,246.44 3.25,246.75 3.56,246.94 4.00,247.00"/>
    </edge>
    <edge id=":L1_3" function="internal">
        <lane id=":L1_3_0" index="0" speed="2.89" length="2.92" width="2.00" shape="1.00,246.00 0.50,246.75 0.00,247.00 -0.50,246.75 -1.00,246.00"/>
    </edge>
    <edge id=":L2_0" function="internal">
        <lane id=":L2_0_0" index="0" speed="7.08" length="11.29" width="2.00" shape="-3.00,54.00 -2.56,50.94 -1.25,48.75 0.94,47.44 4.00,47.00"/>
    </edge>
    <edge id=":L2_1" function="internal">
        <lane id=":L2_1_0" index="0" speed="2.89" length="2.92" width="2.00" shape="-1.00,54.00 -0.50,53.25 0.00,53.00 0.50,53.25 1.00,54.00"/>
    </edge>
    <edge id=":L2_2" function="internal">
        <lane id=":L2_2_0" index="0" speed="3.09" length="1.61" width="2.00" shape="4.00,53.00 3.56,53.06 3.25,53.25 3.06,53.56 3.00,54.00"/>
    </edge>
    <edge id=":L2_3" function="internal">
        <lane id=":L2_3_0" index="0" speed="2.89" length="2.92" width="2.00" shape="4.00,51.00 3.25,50.50 3.00,50.00 3.25,49.50 4.00,49.00"/>
    </edge>
    <edge id=":O2_0" function="internal">
        <lane id=":O2_0_0" index="0" speed="2.89" length="2.92" width="2.00" shape="99.00,0.00 99.50,-0.75 100.00,-1.00 100.50,-0.75 101.00,0.00"/>
    </edge>
    <edge id=":O3_0" function="internal">
        <lane id=":O3_0_0" index="0" speed="2.89" length="2.92" width="2.00" shape="199.00,0.00 199.50,-0.75 200.00,-1.00 200.50,-0.75 201.00,0.00"/>
    </edge>
    <edge id=":O4_0" function="internal">
        <lane id=":O4_0_0" index="0" speed="2.89" length="2.92" width="2.00" shape="250.00,49.00 250.75,49.50 251.00,50.00 250.75,50.50 250.00,51.00"/>
    </edge>
    <edge id=":O5_0" function="internal">
        <lane id=":O5_0_0" index="0" speed="2.89" length="2.92" width="2.00" shape="250.00,99.00 250.75,99.50 251.00,100.00 250.75,100.50 250.00,101.00"/>
    </edge>
    <edge id=":O6_0" function="internal">
        <lane id=":O6_0_0" index="0" speed="2.89" length="2.92" width="2.00" shape="250.00,249.00 250.75,249.50 251.00,250.00 250.75,250.50 250.00,251.00"/>
    </edge>
    <edge id=":O7_0" function="internal">
        <lane id=":O7_0_0" index="0" speed="2.89" length="2.92" width="2.00" shape="201.00,300.00 200.50,300.75 200.00,301.00 199.50,300.75 199.00,300.00"/>
    </edge>
    <edge id=":O8_0" function="internal">
        <lane id=":O8_0_0" index="0" speed="2.89" length="2.92" width="2.00" shape="250.00,199.00 250.75,199.50 251.00,200.00 250.75,200.50 250.00,201.00"/>
    </edge>
    <edge id=":T0_0" function="internal">
        <lane id=":T0_0_0" index="0" speed="13.89" length="16.00" width="2.00" shape="-3.00,158.00 -3.00,142.00"/>
    </edge>
    <edge id=":T0_1" function="internal">
        <lane id=":T0_1_0" index="0" speed="7.98" length="4.83" width="2.00" shape="-1.00,158.00 -0.44,154.06 -0.00,153.33"/>
    </edge>
    <edge id=":T0_6" function="internal">
        <lane id=":T0_6_0" index="0" speed="7.98" length="9.69" width="2.00" shape="-0.00,153.33 1.25,151.25 4.06,149.56 8.00,149.00"/>
    </edge>
    <edge id=":T0_2" function="internal">
        <lane id=":T0_2_0" index="0" speed="6.05" length="8.06" width="2.00" shape="8.00,153.00 5.81,153.31 4.25,154.25 3.31,155.81 3.00,158.00"/>
    </edge>
    <edge id=":T0_3" function="internal">
        <lane id=":T0_3_0" index="0" speed="7.98" length="14.51" width="2.00" shape="8.00,151.00 4.06,150.44 1.25,148.75 -0.44,145.94 -1.00,142.00"/>
    </edge>
    <edge id=":T0_4" function="internal">
        <lane id=":T0_4_0" index="0" speed="6.05" length="8.06" width="2.00" shape="3.00,142.00 3.31,144.19 4.25,145.75 5.81,146.69 8.00,147.00"/>
    </edge>
    <edge id=":T0_5" function="internal">
        <lane id=":T0_5_0" index="0" speed="13.89" length="16.00" width="2.00" shape="1.00,142.00 1.00,158.00"/>
    </edge>
    <edge id=":T1_0" function="internal">
        <lane id=":T1_0_0" index="0" speed="13.89" length="16.00" width="2.00" shape="-3.00,108.00 -3.00,92.00"/>
    </edge>
    <edge id=":T1_1" function="internal">
        <lane id=":T1_1_0" index="0" speed="7.98" length="4.83" width="2.00" shape="-1.00,108.00 -0.44,104.06 0.00,103.33"/>
    </edge>
    <edge id=":T1_6" function="internal">
        <lane id=":T1_6_0" index="0" speed="7.98" length="9.69" width="2.00" shape="0.00,103.33 1.25,101.25 4.06,99.56 8.00,99.00"/>
    </edge>
    <edge id=":T1_2" function="internal">
        <lane id=":T1_2_0" index="0" speed="6.05" length="8.06" width="2.00" shape="8.00,103.00 5.81,103.31 4.25,104.25 3.31,105.81 3.00,108.00"/>
    </edge>
    <edge id=":T1_3" function="internal">
        <lane id=":T1_3_0" index="0" speed="7.98" length="14.51" width="2.00" shape="8.00,101.00 4.06,100.44 1.25,98.75 -0.44,95.94 -1.00,92.00"/>
    </edge>
    <edge id=":T1_4" function="internal">
        <lane id=":T1_4_0" index="0" speed="6.05" length="8.06" width="2.00" shape="3.00,92.00 3.31,94.19 4.25,95.75 5.81,96.69 8.00,97.00"/>
    </edge>
    <edge id=":T1_5" function="internal">
        <lane id=":T1_5_0" index="0" speed="13.89" length="16.00" width="2.00" shape="1.00,92.00 1.00,108.00"/>
    </edge>
    <edge id=":T2_0" function="internal">
        <lane id=":T2_0_0" index="0" speed="13.89" length="16.00" width="2.00" shape="108.00,253.00 92.00,253.00"/>
    </edge>
    <edge id=":T2_1" function="internal">
        <lane id=":T2_1_0" index="0" speed="7.98" length="4.83" width="2.00" shape="108.00,251.00 104.06,250.44 103.33,250.00"/>
    </edge>
    <edge id=":T2_6" function="internal">
        <lane id=":T2_6_0" index="0" speed="7.98" length="9.69" width="2.00" shape="103.33,250.00 101.25,248.75 99.56,245.94 99.00,242.00"/>
    </edge>
    <edge id=":T2_2" function="internal">
        <lane id=":T2_2_0" index="0" speed="6.05" length="8.06" width="2.00" shape="103.00,242.00 103.31,244.19 104.25,245.75 105.81,246.69 108.00,247.00"/>
    </edge>
    <edge id=":T2_3" function="internal">
        <lane id=":T2_3_0" index="0" speed="7.98" length="14.51" width="2.00" shape="101.00,242.00 100.44,245.94 98.75,248.75 95.94,250.44 92.00,251.00"/>
    </edge>
    <edge id=":T2_4" function="internal">
        <lane id=":T2_4_0" index="0" speed="6.05" length="8.06" width="2.00" shape="92.00,247.00 94.19,246.69 95.75,245.75 96.69,244.19 97.00,242.00"/>
    </edge>
    <edge id=":T2_5" function="internal">
        <lane id=":T2_5_0" index="0" speed="13.89" length="16.00" width="2.00" shape="92.00,249.00 108.00,249.00"/>
    </edge>
    <edge id=":T3_0" function="internal">
        <lane id=":T3_0_0" index="0" speed="13.89" length="16.00" width="2.00" shape="158.00,253.00 142.00,253.00"/>
    </edge>
    <edge id=":T3_1" function="internal">
        <lane id=":T3_1_0" index="0" speed="7.98" length="4.83" width="2.00" shape="158.00,251.00 154.06,250.44 153.33,250.00"/>
    </edge>
    <edge id=":T3_6" function="internal">
        <lane id=":T3_6_0" index="0" speed="7.98" length="9.69" width="2.00" shape="153.33,250.00 151.25,248.75 149.56,245.94 149.00,242.00"/>
    </edge>
    <edge id=":T3_2" function="internal">
        <lane id=":T3_2_0" index="0" speed="6.05" length="8.06" width="2.00" shape="153.00,242.00 153.31,244.19 154.25,245.75 155.81,246.69 158.00,247.00"/>
    </edge>
    <edge id=":T3_3" function="internal">
        <lane id=":T3_3_0" index="0" speed="7.98" length="14.51" width="2.00" shape="151.00,242.00 150.44,245.94 148.75,248.75 145.94,250.44 142.00,251.00"/>
    </edge>
    <edge id=":T3_4" function="internal">
        <lane id=":T3_4_0" index="0" speed="6.05" length="8.06" width="2.00" shape="142.00,247.00 144.19,246.69 145.75,245.75 146.69,244.19 147.00,242.00"/>
    </edge>
    <edge id=":T3_5" function="internal">
        <lane id=":T3_5_0" index="0" speed="13.89" length="16.00" width="2.00" shape="142.00,249.00 158.00,249.00"/>
    </edge>
    <edge id=":T4_0" function="internal">
        <lane id=":T4_0_0" index="0" speed="6.05" length="8.06" width="2.00" shape="147.00,158.00 146.69,155.81 145.75,154.25 144.19,153.31 142.00,153.00"/>
    </edge>
    <edge id=":T4_1" function="internal">
        <lane id=":T4_1_0" index="0" speed="13.89" length="16.00" width="2.00" shape="149.00,158.00 149.00,142.00"/>
    </edge>
    <edge id=":T4_2" function="internal">
        <lane id=":T4_2_0" index="0" speed="13.89" length="16.00" width="2.00" shape="153.00,142.00 153.00,158.00"/>
    </edge>
    <edge id=":T4_3" function="internal">
        <lane id=":T4_3_0" index="0" speed="7.98" length="4.83" width="2.00" shape="151.00,142.00 150.44,145.94 150.00,146.67"/>
    </edge>
    <edge id=":T4_6" function="internal">
        <lane id=":T4_6_0" index="0" speed="7.98" length="9.69" width="2.00" shape="150.00,146.67 148.75,148.75 145.94,150.44 142.00,151.00"/>
    </edge>
    <edge id=":T4_4" function="internal">
        <lane id=":T4_4_0" index="0" speed="6.05" length="8.06" width="2.00" shape="142.00,147.00 144.19,146.69 145.75,145.75 146.69,144.19 147.00,142.00"/>
    </edge>
    <edge id=":T4_5" function="internal">
        <lane id=":T4_5_0" index="0" speed="7.98" length="14.51" width="2.00" shape="142.00,149.00 145.94,149.56 148.75,151.25 150.44,154.06 151.00,158.00"/>
    </edge>
    <edge id=":T5_0" function="internal">
        <lane id=":T5_0_0" index="0" speed="6.05" length="8.06" width="2.00" shape="147.00,58.00 146.69,55.81 145.75,54.25 144.19,53.31 142.00,53.00"/>
    </edge>
    <edge id=":T5_1" function="internal">
        <lane id=":T5_1_0" index="0" speed="7.98" length="14.51" width="2.00" shape="149.00,58.00 149.56,54.06 151.25,51.25 154.06,49.56 158.00,49.00"/>
    </edge>
    <edge id=":T5_2" function="internal">
        <lane id=":T5_2_0" index="0" speed="6.05" length="8.06" width="2.00" shape="158.00,53.00 155.81,53.31 154.25,54.25 153.31,55.81 153.00,58.00"/>
    </edge>
    <edge id=":T5_3" function="internal">
        <lane id=":T5_3_0" index="0" speed="13.89" length="16.00" width="2.00" shape="158.00,51.00 142.00,51.00"/>
    </edge>
    <edge id=":T5_4" function="internal">
        <lane id=":T5_4_0" index="0" speed="13.89" length="16.00" width="2.00" shape="142.00,47.00 158.00,47.00"/>
    </edge>
    <edge id=":T5_5" function="internal">
        <lane id=":T5_5_0" index="0" speed="7.98" length="4.83" width="2.00" shape="142.00,49.00 145.94,49.56 146.67,50.00"/>
    </edge>
    <edge id=":T5_6" function="internal">
        <lane id=":T5_6_0" index="0" speed="7.98" length="9.69" width="2.00" shape="146.67,50.00 148.75,51.25 150.44,54.06 151.00,58.00"/>
    </edge>
    <edge id=":T6_0" function="internal">
        <lane id=":T6_0_0" index="0" speed="13.89" length="16.00" width="2.00" shape="147.00,208.00 147.00,192.00"/>
    </edge>
    <edge id=":T6_1" function="internal">
        <lane id=":T6_1_0" index="0" speed="7.98" length="4.83" width="2.00" shape="149.00,208.00 149.56,204.06 150.00,203.33"/>
    </edge>
    <edge id=":T6_6" function="internal">
        <lane id=":T6_6_0" index="0" speed="7.98" length="9.69" width="2.00" shape="150.00,203.33 151.25,201.25 154.06,199.56 158.00,199.00"/>
    </edge>
    <edge id=":T6_2" function="internal">
        <lane id=":T6_2_0" index="0" speed="6.05" length="8.06" width="2.00" shape="158.00,203.00 155.81,203.31 154.25,204.25 153.31,205.81 153.00,208.00"/>
    </edge>
    <edge id=":T6_3" function="internal">
        <lane id=":T6_3_0" index="0" speed="7.98" length="14.51" width="2.00" shape="158.00,201.00 154.06,200.44 151.25,198.75 149.56,195.94 149.00,192.00"/>
    </edge>
    <edge id=":T6_4" function="internal">
        <lane id=":T6_4_0" index="0" speed="6.05" length="8.06" width="2.00" shape="153.00,192.00 153.31,194.19 154.25,195.75 155.81,196.69 158.00,197.00"/>
    </edge>
    <edge id=":T6_5" function="internal">
        <lane id=":T6_5_0" index="0" speed="13.89" length="16.00" width="2.00" shape="151.00,192.00 151.00,208.00"/>
    </edge>
    <edge id=":X0_0" function="internal">
        <lane id=":X0_0_0" index="0" speed="6.05" length="8.06" width="2.00" shape="97.00,58.00 96.69,55.81 95.75,54.25 94.19,53.31 92.00,53.00"/>
    </edge>
    <edge id=":X0_1" function="internal">
        <lane id=":X0_1_0" index="0" speed="13.89" length="16.00" width="2.00" shape="97.00,58.00 97.00,42.00"/>
    </edge>
    <edge id=":X0_2" function="internal">
        <lane id=":X0_2_0" index="0" speed="7.98" length="8.13" width="2.00" shape="99.00,58.00 99.56,54.06 101.25,51.25 102.00,50.80"/>
    </edge>
    <edge id=":X0_12" function="internal">
        <lane id=":X0_12_0" index="0" speed="7.98" length="6.38" width="2.00" shape="102.00,50.80 104.06,49.56 108.00,49.00"/>
    </edge>
    <edge id=":X0_3" function="internal">
        <lane id=":X0_3_0" index="0" speed="6.05" length="8.06" width="2.00" shape="108.00,53.00 105.81,53.31 104.25,54.25 103.31,55.81 103.00,58.00"/>
    </edge>
    <edge id=":X0_4" function="internal">
        <lane id=":X0_4_0" index="0" speed="13.89" length="16.00" width="2.00" shape="108.00,53.00 92.00,53.00"/>
    </edge>
    <edge id=":X0_5" function="internal">
        <lane id=":X0_5_0" index="0" speed="7.98" length="8.13" width="2.00" shape="108.00,51.00 104.06,50.44 101.25,48.75 100.80,48.00"/>
    </edge>
    <edge id=":X0_13" function="internal">
        <lane id=":X0_13_0" index="0" speed="7.98" length="6.38" width="2.00" shape="100.80,48.00 99.56,45.94 99.00,42.00"/>
    </edge>
    <edge id=":X0_6" function="internal">
        <lane id=":X0_6_0" index="0" speed="6.05" length="8.06" width="2.00" shape="103.00,42.00 103.31,44.19 104.25,45.75 105.81,46.69 108.00,47.00"/>
    </edge>
    <edge id=":X0_7" function="internal">
        <lane id=":X0_7_0" index="0" speed="13.89" length="16.00" width="2.00" shape="103.00,42.00 103.00,58.00"/>
    </edge>
    <edge id=":X0_8" function="internal">
        <lane id=":X0_8_0" index="0" speed="7.98" length="8.13" width="2.00" shape="101.00,42.00 100.44,45.94 98.75,48.75 98.00,49.20"/>
    </edge>
    <edge id=":X0_14" function="internal">
        <lane id=":X0_14_0" index="0" speed="7.98" length="6.38" width="2.00" shape="98.00,49.20 95.94,50.44 92.00,51.00"/>
    </edge>
    <edge id=":X0_9" function="internal">
        <lane id=":X0_9_0" index="0" speed="6.05" length="8.06" width="2.00" shape="92.00,47.00 94.19,46.69 95.75,45.75 96.69,44.19 97.00,42.00"/>
    </edge>
    <edge id=":X0_10" function="internal">
        <lane id=":X0_10_0" index="0" speed="13.89" length="16.00" width="2.00" shape="92.00,47.00 108.00,47.00"/>
    </edge>
    <edge id=":X0_11" function="internal">
        <lane id=":X0_11_0" index="0" speed="7.98" length="8.13" width="2.00" shape="92.00,49.00 95.94,49.56 98.75,51.25 99.20,52.00"/>
    </edge>
    <edge id=":X0_15" function="internal">
        <lane id=":X0_15_0" index="0" speed="7.98" length="6.38" width="2.00" shape="99.20,52.00 100.44,54.06 101.00,58.00"/>
    </edge>
    <edge id=":X1_0" function="internal">
        <lane id=":X1_0_0" index="0" speed="6.05" length="8.06" width="2.00" shape="97.00,108.00 96.69,105.81 95.75,104.25 94.19,103.31 92.00,103.00"/>
    </edge>
    <edge id=":X1_1" function="internal">
        <lane id=":X1_1_0" index="0" speed="13.89" length="16.00" width="2.00" shape="97.00,108.00 97.00,92.00"/>
    </edge>
    <edge id=":X1_2" function="internal">
        <lane id=":X1_2_0" index="0" speed="7.98" length="8.13" width="2.00" shape="99.00,108.00 99.56,104.06 101.25,101.25 102.00,100.80"/>
    </edge>
    <edge id=":X1_12" function="internal">
        <lane id=":X1_12_0" index="0" speed="7.98" length="6.38" width="2.00" shape="102.00,100.80 104.06,99.56 108.00,99.00"/>
    </edge>
    <edge id=":X1_3" function="internal">
        <lane id=":X1_3_0" index="0" speed="6.05" length="8.06" width="2.00" shape="108.00,103.00 105.81,103.31 104.25,104.25 103.31,105.81 103.00,108.00"/>
    </edge>
    <edge id=":X1_4" function="internal">
        <lane id=":X1_4_0" index="0" speed="13.89" length="16.00" width="2.00" shape="108.00,103.00 92.00,103.00"/>
    </edge>
    <edge id=":X1_5" function="internal">
        <lane id=":X1_5_0" index="0" speed="7.98" length="8.13" width="2.00" shape="108.00,101.00 104.06,100.44 101.25,98.75 100.80,98.00"/>
    </edge>
    <edge id=":X1_13" function="internal">
        <lane id=":X1_13_0" index="0" speed="7.98" length="6.38" width="2.00" shape="100.80,98.00 99.56,95.94 99.00,92.00"/>
    </edge>
    <edge id=":X1_6" function="internal">
        <lane id=":X1_6_0" index="0" speed="6.05" length="8.06" width="2.00" shape="103.00,92.00 103.31,94.19 104.25,95.75 105.81,96.69 108.00,97.00"/>
    </edge>
    <edge id=":X1_7" function="internal">
        <lane id=":X1_7_0" index="0" speed="13.89" length="16.00" width="2.00" shape="103.00,92.00 103.00,108.00"/>
    </edge>
    <edge id=":X1_8" function="internal">
        <lane id=":X1_8_0" index="0" speed="7.98" length="8.13" width="2.00" shape="101.00,92.00 100.44,95.94 98.75,98.75 98.00,99.20"/>
    </edge>
    <edge id=":X1_14" function="internal">
        <lane id=":X1_14_0" index="0" speed="7.98" length="6.38" width="2.00" shape="98.00,99.20 95.94,100.44 92.00,101.00"/>
    </edge>
    <edge id=":X1_9" function="internal">
        <lane id=":X1_9_0" index="0" speed="6.05" length="8.06" width="2.00" shape="92.00,97.00 94.19,96.69 95.75,95.75 96.69,94.19 97.00,92.00"/>
    </edge>
    <edge id=":X1_10" function="internal">
        <lane id=":X1_10_0" index="0" speed="13.89" length="16.00" width="2.00" shape="92.00,97.00 108.00,97.00"/>
    </edge>
    <edge id=":X1_11" function="internal">
        <lane id=":X1_11_0" index="0" speed="7.98" length="8.13" width="2.00" shape="92.00,99.00 95.94,99.56 98.75,101.25 99.20,102.00"/>
    </edge>
    <edge id=":X1_15" function="internal">
        <lane id=":X1_15_0" index="0" speed="7.98" length="6.38" width="2.00" shape="99.20,102.00 100.44,104.06 101.00,108.00"/>
    </edge>
    <edge id=":X2_0" function="internal">
        <lane id=":X2_0_0" index="0" speed="6.05" length="8.06" width="2.00" shape="97.00,158.00 96.69,155.81 95.75,154.25 94.19,153.31 92.00,153.00"/>
    </edge>
    <edge id=":X2_1" function="internal">
        <lane id=":X2_1_0" index="0" speed="13.89" length="16.00" width="2.00" shape="97.00,158.00 97.00,142.00"/>
    </edge>
    <edge id=":X2_2" function="internal">
        <lane id=":X2_2_0" index="0" speed="7.98" length="8.13" width="2.00" shape="99.00,158.00 99.56,154.06 101.25,151.25 102.00,150.80"/>
    </edge>
    <edge id=":X2_12" function="internal">
        <lane id=":X2_12_0" index="0" speed="7.98" length="6.38" width="2.00" shape="102.00,150.80 104.06,149.56 108.00,149.00"/>
    </edge>
    <edge id=":X2_3" function="internal">
        <lane id=":X2_3_0" index="0" speed="6.05" length="8.06" width="2.00" shape="108.00,153.00 105.81,153.31 104.25,154.25 103.31,155.81 103.00,158.00"/>
    </edge>
    <edge id=":X2_4" function="internal">
        <lane id=":X2_4_0" index="0" speed="13.89" length="16.00" width="2.00" shape="108.00,153.00 92.00,153.00"/>
    </edge>
    <edge id=":X2_5" function="internal">
        <lane id=":X2_5_0" index="0" speed="7.98" length="8.13" width="2.00" shape="108.00,151.00 104.06,150.44 101.25,148.75 100.80,148.00"/>
    </edge>
    <edge id=":X2_13" function="internal">
        <lane id=":X2_13_0" index="0" speed="7.98" length="6.38" width="2.00" shape="100.80,148.00 99.56,145.94 99.00,142.00"/>
    </edge>
    <edge id=":X2_6" function="internal">
        <lane id=":X2_6_0" index="0" speed="6.05" length="8.06" width="2.00" shape="103.00,142.00 103.31,144.19 104.25,145.75 105.81,146.69 108.00,147.00"/>
    </edge>
    <edge id=":X2_7" function="internal">
        <lane id=":X2_7_0" index="0" speed="13.89" length="16.00" width="2.00" shape="103.00,142.00 103.00,158.00"/>
    </edge>
    <edge id=":X2_8" function="internal">
        <lane id=":X2_8_0" index="0" speed="7.98" length="8.13" width="2.00" shape="101.00,142.00 100.44,145.94 98.75,148.75 98.00,149.20"/>
    </edge>
    <edge id=":X2_14" function="internal">
        <lane id=":X2_14_0" index="0" speed="7.98" length="6.38" width="2.00" shape="98.00,149.20 95.94,150.44 92.00,151.00"/>
    </edge>
    <edge id=":X2_9" function="internal">
        <lane id=":X2_9_0" index="0" speed="6.05" length="8.06" width="2.00" shape="92.00,147.00 94.19,146.69 95.75,145.75 96.69,144.19 97.00,142.00"/>
    </edge>
    <edge id=":X2_10" function="internal">
        <lane id=":X2_10_0" index="0" speed="13.89" length="16.00" width="2.00" shape="92.00,147.00 108.00,147.00"/>
    </edge>
    <edge id=":X2_11" function="internal">
        <lane id=":X2_11_0" index="0" speed="7.98" length="8.13" width="2.00" shape="92.00,149.00 95.94,149.56 98.75,151.25 99.20,152.00"/>
    </edge>
    <edge id=":X2_15" function="internal">
        <lane id=":X2_15_0" index="0" speed="7.98" length="6.38" width="2.00" shape="99.20,152.00 100.44,154.06 101.00,158.00"/>
    </edge>
    <edge id=":X3_0" function="internal">
        <lane id=":X3_0_0" index="0" speed="6.05" length="8.06" width="2.00" shape="147.00,108.00 146.69,105.81 145.75,104.25 144.19,103.31 142.00,103.00"/>
    </edge>
    <edge id=":X3_1" function="internal">
        <lane id=":X3_1_0" index="0" speed="13.89" length="16.00" width="2.00" shape="147.00,108.00 147.00,92.00"/>
    </edge>
    <edge id=":X3_2" function="internal">
        <lane id=":X3_2_0" index="0" speed="7.98" length="8.13" width="2.00" shape="149.00,108.00 149.56,104.06 151.25,101.25 152.00,100.80"/>
    </edge>
    <edge id=":X3_12" function="internal">
        <lane id=":X3_12_0" index="0" speed="7.98" length="6.38" width="2.00" shape="152.00,100.80 154.06,99.56 158.00,99.00"/>
    </edge>
    <edge id=":X3_3" function="internal">
        <lane id=":X3_3_0" index="0" speed="6.05" length="8.06" width="2.00" shape="158.00,103.00 155.81,103.31 154.25,104.25 153.31,105.81 153.00,108.00"/>
    </edge>
    <edge id=":X3_4" function="internal">
        <lane id=":X3_4_0" index="0" speed="13.89" length="16.00" width="2.00" shape="158.00,103.00 142.00,103.00"/>
    </edge>
    <edge id=":X3_5" function="internal">
        <lane id=":X3_5_0" index="0" speed="7.98" length="8.13" width="2.00" shape="158.00,101.00 154.06,100.44 151.25,98.75 150.80,98.00"/>
    </edge>
    <edge id=":X3_13" function="internal">
        <lane id=":X3_13_0" index="0" speed="7.98" length="6.38" width="2.00" shape="150.80,98.00 149.56,95.94 149.00,92.00"/>
    </edge>
    <edge id=":X3_6" function="internal">
        <lane id=":X3_6_0" index="0" speed="6.05" length="8.06" width="2.00" shape="153.00,92.00 153.31,94.19 154.25,95.75 155.81,96.69 158.00,97.00"/>
    </edge>
    <edge id=":X3_7" function="internal">
        <lane id=":X3_7_0" index="0" speed="13.89" length="16.00" width="2.00" shape="153.00,92.00 153.00,108.00"/>
    </edge>
    <edge id=":X3_8" function="internal">
        <lane id=":X3_8_0" index="0" speed="7.98" length="8.13" width="2.00" shape="151.00,92.00 150.44,95.94 148.75,98.75 148.00,99.20"/>
    </edge>
    <edge id=":X3_14" function="internal">
        <lane id=":X3_14_0" index="0" speed="7.98" length="6.38" width="2.00" shape="148.00,99.20 145.94,100.44 142.00,101.00"/>
    </edge>
    <edge id=":X3_9" function="internal">
        <lane id=":X3_9_0" index="0" speed="6.05" length="8.06" width="2.00" shape="142.00,97.00 144.19,96.69 145.75,95.75 146.69,94.19 147.00,92.00"/>
    </edge>
    <edge id=":X3_10" function="internal">
        <lane id=":X3_10_0" index="0" speed="13.89" length="16.00" width="2.00" shape="142.00,97.00 158.00,97.00"/>
    </edge>
    <edge id=":X3_11" function="internal">
        <lane id=":X3_11_0" index="0" speed="7.98" length="8.13" width="2.00" shape="142.00,99.00 145.94,99.56 148.75,101.25 149.20,102.00"/>
    </edge>
    <edge id=":X3_15" function="internal">
        <lane id=":X3_15_0" index="0" speed="7.98" length="6.38" width="2.00" shape="149.20,102.00 150.44,104.06 151.00,108.00"/>
    </edge>
    <edge id=":X4_0" function="internal">
        <lane id=":X4_0_0" index="0" speed="6.05" length="8.06" width="2.00" shape="197.00,58.00 196.69,55.81 195.75,54.25 194.19,53.31 192.00,53.00"/>
    </edge>
    <edge id=":X4_1" function="internal">
        <lane id=":X4_1_0" index="0" speed="13.89" length="16.00" width="2.00" shape="197.00,58.00 197.00,42.00"/>
    </edge>
    <edge id=":X4_2" function="internal">
        <lane id=":X4_2_0" index="0" speed="7.98" length="8.13" width="2.00" shape="199.00,58.00 199.56,54.06 201.25,51.25 202.00,50.80"/>
    </edge>
    <edge id=":X4_12" function="internal">
        <lane id=":X4_12_0" index="0" speed="7.98" length="6.38" width="2.00" shape="202.00,50.80 204.06,49.56 208.00,49.00"/>
    </edge>
    <edge id=":X4_3" function="internal">
        <lane id=":X4_3_0" index="0" speed="6.05" length="8.06" width="2.00" shape="208.00,53.00 205.81,53.31 204.25,54.25 203.31,55.81 203.00,58.00"/>
    </edge>
    <edge id=":X4_4" function="internal">
        <lane id=":X4_4_0" index="0" speed="13.89" length="16.00" width="2.00" shape="208.00,53.00 192.00,53.00"/>
    </edge>
    <edge id=":X4_5" function="internal">
        <lane id=":X4_5_0" index="0" speed="7.98" length="8.13" width="2.00" shape="208.00,51.00 204.06,50.44 201.25,48.75 200.80,48.00"/>
    </edge>
    <edge id=":X4_13" function="internal">
        <lane id=":X4_13_0" index="0" speed="7.98" length="6.38" width="2.00" shape="200.80,48.00 199.56,45.94 199.00,42.00"/>
    </edge>
    <edge id=":X4_6" function="internal">
        <lane id=":X4_6_0" index="0" speed="6.05" length="8.06" width="2.00" shape="203.00,42.00 203.31,44.19 204.25,45.75 205.81,46.69 208.00,47.00"/>
    </edge>
    <edge id=":X4_7" function="internal">
        <lane id=":X4_7_0" index="0" speed="13.89" length="16.00" width="2.00" shape="203.00,42.00 203.00,58.00"/>
    </edge>
    <edge id=":X4_8" function="internal">
        <lane id=":X4_8_0" index="0" speed="7.98" length="8.13" width="2.00" shape="201.00,42.00 200.44,45.94 198.75,48.75 198.00,49.20"/>
    </edge>
    <edge id=":X4_14" function="internal">
        <lane id=":X4_14_0" index="0" speed="7.98" length="6.38" width="2.00" shape="198.00,49.20 195.94,50.44 192.00,51.00"/>
    </edge>
    <edge id=":X4_9" function="internal">
        <lane id=":X4_9_0" index="0" speed="6.05" length="8.06" width="2.00" shape="192.00,47.00 194.19,46.69 195.75,45.75 196.69,44.19 197.00,42.00"/>
    </edge>
    <edge id=":X4_10" function="internal">
        <lane id=":X4_10_0" index="0" speed="13.89" length="16.00" width="2.00" shape="192.00,47.00 208.00,47.00"/>
    </edge>
    <edge id=":X4_11" function="internal">
        <lane id=":X4_11_0" index="0" speed="7.98" length="8.13" width="2.00" shape="192.00,49.00 195.94,49.56 198.75,51.25 199.20,52.00"/>
    </edge>
    <edge id=":X4_15" function="internal">
        <lane id=":X4_15_0" index="0" speed="7.98" length="6.38" width="2.00" shape="199.20,52.00 200.44,54.06 201.00,58.00"/>
    </edge>
    <edge id=":X5_0" function="internal">
        <lane id=":X5_0_0" index="0" speed="6.05" length="8.06" width="2.00" shape="197.00,108.00 196.69,105.81 195.75,104.25 194.19,103.31 192.00,103.00"/>
    </edge>
    <edge id=":X5_1" function="internal">
        <lane id=":X5_1_0" index="0" speed="13.89" length="16.00" width="2.00" shape="197.00,108.00 197.00,92.00"/>
    </edge>
    <edge id=":X5_2" function="internal">
        <lane id=":X5_2_0" index="0" speed="7.98" length="8.13" width="2.00" shape="199.00,108.00 199.56,104.06 201.25,101.25 202.00,100.80"/>
    </edge>
    <edge id=":X5_12" function="internal">
        <lane id=":X5_12_0" index="0" speed="7.98" length="6.38" width="2.00" shape="202.00,100.80 204.06,99.56 208.00,99.00"/>
    </edge>
    <edge id=":X5_3" function="internal">
        <lane id=":X5_3_0" index="0" speed="6.05" length="8.06" width="2.00" shape="208.00,103.00 205.81,103.31 204.25,104.25 203.31,105.81 203.00,108.00"/>
    </edge>
    <edge id=":X5_4" function="internal">