<?xml version="1.0" encoding="UTF-8"?>

<!-- generated on Tue Mar 16 13:00:00 2021 by Eclipse SUMO duarouter Version 1.4.0
<configuration xmlns:xsi="http://www.w3.org/2001/XMLSchema-instance" xsi:noNamespaceSchemaLocation="http://sumo.dlr.de/xsd/duarouterConfiguration.xsd">

    <input>
        <net-file value="class.net.xml"/>
        <additional-files value="type.add.xml"/>
        <route-files value="trips.trips.xml"/>
    </input>

    <output>
        <output-file value="routes.rou.xml"/>
        <alternatives-output value="routes.rou.alt.xml"/>
    </output>

    <processing>
        <remove-loops value="true"/>
    </processing>

    <time>
        <begin value="0"/>
        <end value="1800.0"/>
    </time>

    <report>
        <no-warnings value="true"/>
        <ignore-errors value="true"/>
        <no-step-log value="true"/>
    </report>

</configuration>
-->

<routes xmlns:xsi="http://www.w3.org/2001/XMLSchema-instance" xsi:noNamespaceSchemaLocation="http://sumo.dlr.de/xsd/routes_file.xsd">
    <vehicle id="0" depart="0.00">
        <route edges="O7-X6 X6-X7 X7-T6 T6-T3 T3-X6 X6-X7 X7-T6 T6-T4 T4-X3 X3-X1 X1-T1 T1-L2 L2-X0 X0-T5 T5-X4 X4-O3"/>
    </vehicle>
    <vehicle id="1" depart="5.50">
        <route edges="O7-X6 X6-X7 X7-X5 X5-X3 X3-X1 X1-X2 X2-T2 T2-T3 T3-T6 T6-X7 X7-X6 X6-T3 T3-T2 T2-X2 X2-X1 X1-X0 X0-O2"/>
    </vehicle>
    <vehicle id="2" depart="11.00">
        <route edges="O6-X6 X6-T3 T3-T2 T2-X2 X2-T0 T0-T1 T1-X1 X1-X2 X2-T2 T2-T3 T3-T6 T6-T4 T4-X3 X3-T5 T5-X0 X0-O2"/>
    </vehicle>
    <vehicle id="3" depart="16.50">
        <route edges="O8-X7 X7-T6 T6-T4 T4-X2 X2-X1 X1-X3 X3-T4 T4-T6 T6-X7 X7-X5 X5-O5"/>
    </vehicle>
    <vehicle id="4" depart="22.00">
        <route edges="O3-X4 X4-X5 X5-X3 X3-X1 X1-X2 X2-T4 T4-X3 X3-X5 X5-X4 X4-T5 T5-X0 X0-O2 O2-X0 X0-T5 T5-X4 X4-X5 X5-X7 X7-X6 X6-O6"/>
    </vehicle>
    <vehicle id="5" depart="27.50">
        <route edges="O5-X5 X5-X4 X4-T5 T5-X3 X3-X5 X5-X4 X4-T5 T5-X0 X0-L2 L2-T1 T1-X1 X1-X3 X3-X5 X5-O5"/>
    </vehicle>
    <vehicle id="6" depart="33.00">
        <route edges="O8-X7 X7-T6 T6-T4 T4-X3 X3-X1 X1-T1 T1-T0 T0-X2 X2-T4 T4-X3 X3-X5 X5-O5 O5-X5 X5-X3 X3-T5 T5-X4 X4-X5 X5-O5"/>
    </vehicle>
    <vehicle id="7" depart="38.50">
        <route edges="O5-X5 X5-X3 X3-T4 T4-T6 T6-T3 T3-T2 T2-L1 L1-T2 T2-T3 T3-T6 T6-T4 T4-X2 X2-X1 X1-X3 X3-X5 X5-X4 X4-O4"/>
    </vehicle>
    <vehicle id="8" depart="44.00">
        <route edges="O7-X6 X6-T3 T3-T2 T2-L1 L1-T0 T0-T1 T1-X1 X1-X2 X2-T2 T2-L1 L1-T2 T2-X2 X2-T4 T4-X3 X3-T5 T5-X4 X4-O3"/>
    </vehicle>
    <vehicle id="9" depart="49.50">
        <route edges="O3-X4 X4-X5 X5-X3 X3-X1 X1-X2 X2-T0 T0-T1 T1-X1 X1-X3 X3-T4 T4-T6 T6-T3 T3-T2 T2-X2 X2-T4 T4-T6 T6-T3 T3-X6 X6-O7"/>
    </vehicle>
    <vehicle id="10" depart="55.00">
        <route edges="O2-X0 X0-X1 X1-X2 X2-T2 T2-L1 L1-T2 T2-T3 T3-T6 T6-T4 T4-X3 X3-X1 X1-X2 X2-T2 T2-T3 T3-X6 X6-O6"/>
    </vehicle>
    <vehicle id="11" depart="60.50">
        <route edges="O3-X4 X4-T5 T5-X3 X3-T4 T4-T6 T6-X7 X7-X5 X5-X4 X4-T5 T5-X0 X0-L2 L2-T1 T1-T0 T0-L1 L1-T2 T2-T3 T3-X6 X6-O7"/>
    </vehicle>
    <vehicle id="12" depart="66.00">
        <route edges="O3-X4 X4-X5 X5-X7 X7-X6 X6-T3 T3-T6 T6-T4 T4-X2 X2-T0 T0-T1 T1-L2 L2-X0 X0-T5 T5-X4 X4-O4"/>
    </vehicle>
    <vehicle id="13" depart="71.50">
        <route edges="O8-X7 X7-T6 T6-T3 T3-T2 T2-L1 L1-T0 T0-T1 T1-L2 L2-X0 X0-O2 O2-X0 X0-L2 L2-X0 X0-T5 T5-X4 X4-O4"/>
    </vehicle>
    <vehicle id="14" depart="77.00">
        <route edges="O8-X7 X7-T6 T6-T3 T3-T2 T2-X2 X2-T0 T0-T1 T1-X1 X1-X3 X3-T4 T4-T6 T6-T3 T3-T2 T2-X2 X2-T4 T4-T6 T6-X7 X7-O8"/>
    </vehicle>
    <vehicle id="15" depart="82.50">
        <route edges="O3-X4 X4-X5 X5-X7 X7-T6 T6-T4 T4-X3 X3-T5 T5-X0 X0-L2 L2-X0 X0-T5 T5-X4 X4-X5 X5-X3 X3-X1 X1-X0 X0-O2"/>
    </vehicle>
    <vehicle id="16" depart="88.00">
        <route edges="O4-X4 X4-T5 T5-X0 X0-L2 L2-T1 T1-T0 T0-L1 L1-T2 T2-T3 T3-T6 T6-T4 T4-X3 X3-X5 X5-X7 X7-O8 O8-X7 X7-X5 X5-X4 X4-O4"/>
    </vehicle>
    <vehicle id="17" depart="93.50">
        <route edges="O3-X4 X4-T5 T5-X0 X0-L2 L2-T1 T1-X1 X1-X3 X3-T5 T5-X4 X4-X5 X5-X3 X3-X1 X1-T1 T1-T0 T0-X2 X2-T4 T4-T6 T6-T3 T3-X6 X6-O6"/>
    </vehicle>
    <vehicle id="18" depart="99.00">
        <route edges="O4-X4 X4-T5 T5-X3 X3-T4 T4-X2 X2-X1 X1-X0 X0-L2 L2-T1 T1-X1 X1-X2 X2-T4 T4-X3 X3-X1 X1-X0 X0-T5 T5-X4 X4-O3"/>
    </vehicle>
    <vehicle id="19" depart="104.50">
        <route edges="O6-X6 X6-X7 X7-O8 O8-X7 X7-X6 X6-T3 T3-T2 T2-L1 L1-T0 T0-T1 T1-L2 L2-T1 T1-X1 X1-X3 X3-X5 X5-X7 X7-X6 X6-O7"/>
    </vehicle>
    <vehicle id="20" depart="110.00">
        <route edges="O6-X6 X6-X7 X7-X5 X5-X3 X3-T5 T5-X0 X0-L2 L2-T1 T1-X1 X1-X3 X3-X5 X5-X4 X4-O3"/>
    </vehicle>
    <vehicle id="21" depart="115.50">
        <route edges="O8-X7 X7-T6 T6-T4 T4-X2 X2-X1 X1-X3 X3-T4 T4-T6 T6-T3 T3-X6 X6-X7 X7-X5 X5-X3 X3-X1 X1-T1 T1-T0 T0-L1 L1-T2 T2-T3 T3-X6 X6-O6"/>
    </vehicle>
    <vehicle id="22" depart="121.00">
        <route edges="O5-X5 X5-X4 X4-O3 O3-X4 X4-X5 X5-X3 X3-X1 X1-T1 T1-L2 L2-T1 T1-X1 X1-X3 X3-T5 T5-X4 X4-O4"/>
    </vehicle>
    <vehicle id="23" depart="126.50">
        <route edges="O3-X4 X4-T5 T5-X3 X3-T4 T4-T6 T6-T3 T3-T2 T2-X2 X2-X1 X1-X3 X3-T5 T5-X0 X0-L2 L2-X0 X0-T5 T5-X4 X4-O4"/>
    </vehicle>
    <vehicle id="24" depart="132.00">
        <route edges="O5-X5 X5-X3 X3-T4 T4-T6 T6-T3 T3-T2 T2-L1 L1-T2 T2-T3 T3-T6 T6-T4 T4-X2 X2-T2 T2-T3 T3-T6 T6-T4 T4-X3 X3-T5 T5-X4 X4-O4"/>
    </vehicle>
    <vehicle id="25" depart="137.50">
        <route edges="O6-X6 X6-T3 T3-T2 T2-X2 X2-T0 T0-L1 L1-T0 T0-T1 T1-L2 L2-X0 X0-X1 X1-X2 X2-T4 T4-T6 T6-T3 T3-X6 X6-O6"/>
    </vehicle>
    <vehicle id="26" depart="143.00">
        <route edges="O3-X4 X4-X5 X5-X7 X7-X6 X6-T3 T3-T6 T6-T4 T4-X3 X3-T5 T5-X4 X4-X5 X5-X3 X3-T4 T4-T6 T6-X7 X7-X5 X5-X4 X4-O4"/>
    </vehicle>
    <vehicle id="27" depart="148.50">
        <route edges="O8-X7 X7-T6 T6-T4 T4-X3 X3-X1 X1-X0 X0-T5 T5-X3 X3-X1 X1-T1 T1-T0 T0-L1 L1-T2 T2-T3 T3-T6 T6-T4 T4-X3 X3-X5 X5-O5"/>
    </vehicle>
    <vehicle id="28" depart="154.00">
        <route edges="O2-X0 X0-X1 X1-X2 X2-T4 T4-T6 T6-T3 T3-X6 X6-X7 X7-T6 T6-T4 T4-X3 X3-X5 X5-X7 X7-T6 T6-T3 T3-X6 X6-O7"/>
    </vehicle>
    <vehicle id="29" depart="159.50">
        <route edges="O5-X5 X5-X4 X4-T5 T5-X3 X3-X5 X5-X4 X4-T5 T5-X0 X0-L2 L2-T1 T1-X1 X1-X0 X0-T5 T5-X4 X4-X5 X5-X7 X7-X6 X6-O6"/>
    </vehicle>
    <vehicle id="30" depart="165.00">
        <route edges="O3-X4 X4-T5 T5-X3 X3-T4 T4-T6 T6-X7 X7-X5 X5-X4 X4-T5 T5-X0 X0-L2 L2-X0 X0-T5 T5-X4 X4-X5 X5-X7 X7-O8"/>
    </vehicle>
    <vehicle id="31" depart="170.50">
        <route edges="O8-X7 X7-T6 T6-T4 T4-X2 X2-X1 X1-X3 X3-T5 T5-X0 X0-L2 L2-T1 T1-T0 T0-X2 X2-X1 X1-X0 X0-T5 T5-X4 X4-O4"/>
    </vehicle>
    <vehicle id="32" depart="176.00">
        <route edges="O4-X4 X4-T5 T5-X0 X0-L2 L2-T1 T1-T0 T0-X2 X2-X1 X1-X3 X3-T4 T4-X2 X2-X1 X1-X0 X0-O2"/>
    </vehicle>
    <vehicle id="33" depart="181.50">
        <route edges="O5-X5 X5-X3 X3-X1 X1-T1 T1-L2 L2-X0 X0-X1 X1-X2 X2-T4 T4-T6 T6-X7 X7-X5 X5-O5"/>
    </vehicle>
    <vehicle id="34" depart="187.00">
        <route edges="O5-X5 X5-X3 X3-X1 X1-X2 X2-T2 T2-T3 T3-T6 T6-T4 T4-X3 X3-X5 X5-X7 X7-X6 X6-O7"/>
    </vehicle>
    <vehicle id="35" depart="192.50">
        <route edges="O5-X5 X5-X3 X3-T5 T5-X4 X4-O4 O4-X4 X4-T5 T5-X0 X0-X1 X1-X2 X2-T2 T2-T3 T3-X6 X6-X7 X7-O8"/>
    </vehicle>
    <vehicle id="36" depart="198.00">
        <route edges="O7-X6 X6-T3 T3-T2 T2-L1 L1-T0 T0-X2 X2-T2 T2-L1 L1-T2 T2-T3 T3-T6 T6-T4 T4-X3 X3-X5 X5-X7 X7-O8"/>
    </vehicle>
    <vehicle id="37" depart="203.50">
        <route edges="O4-X4 X4-T5 T5-X0 X0-X1 X1-X2 X2-T4 T4-X3 X3-X1 X1-T1 T1-T0 T0-X2 X2-X1 X1-T1 T1-L2 L2-T1 T1-X1 X1-X3"/>
    </vehicle>
    <vehicle id="38" depart="209.00">
        <route edges="O7-X6 X6-X7 X7-X5 X5-X4 X4-T5 T5-X3 X3-X5 X5-X7 X7-X6 X6-T3 T3-T2 T2-X2 X2-X1 X1-X0 X0-T5 T5-X4 X4-O3"/>
    </vehicle>
    <vehicle id="39" depart="214.50">
        <route edges="O6-X6 X6-T3 T3-T2 T2-L1 L1-T2 T2-T3 T3-T6 T6-T4 T4-X3 X3-X5 X5-X7 X7-T6 T6-T4 T4-X3 X3-X1 X1-T1 T1-T0 T0-X2 X2-T4 T4-T6 T6-X7 X7-O8"/>
    </vehicle>
    <vehicle id="40" depart="220.00">
        <route edges="O2-X0 X0-X1 X1-X2 X2-T4 T4-X3 X3-X1 X1-X2 X2-T2 T2-T3 T3-T6 T6-T4 T4-X3 X3-T5 T5-X4 X4-O4"/>
    </vehicle>
    <vehicle id="41" depart="225.50">
        <route edges="O8-X7 X7-T6 T6-T3 T3-T2 T2-X2 X2-X1 X1-X3 X3-T4 T4-T6 T6-T3 T3-X6 X6-X7 X7-X5 X5-X4 X4-O4"/>
    </vehicle>
    <vehicle id="42" depart="231.00">
        <route edges="O4-X4 X4-T5 T5-X3 X3-T4 T4-T6 T6-T3 T3-T2 T2-L1 L1-T2 T2-T3 T3-T6 T6-T4 T4-X3 X3-T5 T5-X0 X0-X1 X1-X2 X2-T2 T2-T3 T3-X6 X6-O7"/>
    </vehicle>
    <vehicle id="43" depart="236.50">
        <route edges="O2-X0 X0-X1 X1-X2 X2-T2 T2-T3 T3-X6 X6-X7 X7-X5 X5-X4 X4-T5 T5-X3 X3-X1 X1-T1 T1-T0 T0-X2 X2-T4 T4-X3 X3-X5 X5-O5"/>
    </vehicle>
    <vehicle id="44" depart="242.00">
        <route edges="O5-X5 X5-X3 X3-X1 X1-X0 X0-T5 T5-X3 X3-T4 T4-T6 T6-T3 T3-X6 X6-X7 X7-X5 X5-X4 X4-T5 T5-X0 X0-X1 X1-X2 X2-T4 T4-T6 T6-X7 X7-O8"/>
    </vehicle>
    <vehicle id="45" depart="247.50">
        <route edges="O4-X4 X4-X5 X5-X3 X3-T5 T5-X0 X0-X1 X1-X3 X3-T4 T4-X2 X2-X1 X1-X3 X3-T4 T4-T6 T6-X7 X7-X5 X5-O5"/>
    </vehicle>
    <vehicle id="46" depart="253.00">
        <route edges="O5-X5 X5-X4 X4-T5 T5-X3 X3-T4 T4-X2 X2-T2 T2-T3 T3-T6 T6-X7 X7-X6 X6-O7"/>
    </vehicle>
    <vehicle id="47" depart="258.50">
        <route edges="O5-X5 X5-X7 X7-T6 T6-T4 T4-X3 X3-T5 T5-X4 X4-X5 X5-X3 X3-T4 T4-T6 T6-X7 X7-O8"/>
    </vehicle>
    <vehicle id="48" depart="264.00">
        <route edges="O8-X7 X7-X6 X6-T3 T3-T6 T6-T4 T4-X2 X2-T2 T2-T3 T3-X6 X6-X7 X7-T6 T6-T3 T3-X6 X6-X7 X7-O8"/>
    </vehicle>
    <vehicle id="49" depart="269.50">
        <route edges="O6-X6 X6-T3 T3-T2 T2-L1 L1-T0 T0-T1 T1-X1 X1-X3 X3-T4 T4-T6 T6-X7 X7-X5 X5-X3 X3-T4 T4-T6 T6-T3 T3-X6 X6-X7 X7-O8"/>
    </vehicle>
    <vehicle id="50" depart="275.00">
        <route edges="O2-X0 X0-L2 L2-T1 T1-T0 T0-X2 X2-T4 T4-T6 T6-X7 X7-X5 X5-X3 X3-T5 T5-X4 X4-O3"/>
    </vehicle>
    <vehicle id="51" depart="280.50">
        <route edges="O8-X7 X7-T6 T6-T4 T4-X3 X3-X1 X1-X0 X0-L2 L2-T1 T1-X1 X1-X2 X2-T0 T0-T1 T1-X1 X1-X3 X3-X5 X5-O5"/>
    </vehicle>
    <vehicle id="52" depart="286.00">
        <route edges="O4-X4 X4-T5 T5-X0 X0-L2 L2-T1 T1-X1 X1-X3 X3-X5 X5-X7 X7-T6 T6-T4 T4-X2 X2-T0 T0-L1 L1-T2 T2-T3 T3-X6 X6-X7 X7-O8"/>
    </vehicle>
    <vehicle id="53" depart="291.50">
        <route edges="O3-X4 X4-T5 T5-X3 X3-T4 T4-T6 T6-T3 T3-T2 T2-L1 L1-T0 T0-T1 T1-L2 L2-T1 T1-T0 T0-L1 L1-T2 T2-T3 T3-X6 X6-O7"/>
    </vehicle>
    <vehicle id="54" depart="297.00">
        <route edges="O4-X4 X4-T5 T5-X0 X0-L2 L2-T1 T1-X1 X1-X3 X3-X5 X5-X7 X7-T6 T6-T4 T4-X3 X3-X5 X5-X4 X4-O3"/>
    </vehicle>
    <vehicle id="55" depart="302.50">
        <route edges="O8-X7 X7-T6 T6-T4 T4-X3 X3-X1 X1-T1 T1-T0 T0-X2 X2-T4 T4-X3 X3-T5 T5-X4 X4-X5 X5-X7 X7-X6 X6-O6"/>
    </vehicle>
    <vehicle id="56" depart="308.00">
        <route edges="O7-X6 X6-T3 T3-T6 T6-T4 T4-X3 X3-T5 T5-X0 X0-L2 L2-T1 T1-T0 T0-X2 X2-T4 T4-T6 T6-T3 T3-X6 X6-O7"/>
    </vehicle>
    <vehicle id="57" depart="313.50">
        <route edges="O7-X6 X6-X7 X7-T6 T6-T4 T4-X3 X3-X5 X5-X4 X4-T5 T5-X0 X0-X1 X1-X2 X2-T4 T4-X3 X3-T5 T5-X4 X4-X5 X5-O5"/>
    </vehicle>
    <vehicle id="58" depart="319.00">
        <route edges="O8-X7 X7-T6 T6-T4 T4-X2 X2-T0 T0-T1 T1-L2 L2-T1 T1-T0 T0-X2 X2-T4 T4-T6 T6-X7 X7-X5 X5-X3 X3-T5 T5-X4 X4-O4"/>
    </vehicle>
    <vehicle id="59" depart="324.50">
        <route edges="O8-X7 X7-T6 T6-T4 T4-X3 X3-X1 X1-T1 T1-L2 L2-T1 T1-X1 X1-X3 X3-T4 T4-X2 X2-T2 T2-T3 T3-X6 X6-O6 O6-X6 X6-T3 T3-T6 T6-X7 X7-X6 X6-O6"/>
    </vehicle>
    <vehicle id="60" depart="330.00">
        <route edges="O2-X0 X0-L2 L2-T1 T1-T0 T0-X2 X2-T4 T4-X3 X3-T5 T5-X4 X4-O4"/>
    </vehicle>
    <vehicle id="61" depart="335.50">
        <route edges="O7-X6 X6-X7 X7-X5 X5-X3 X3-X1 X1-X2 X2-T0 T0-T1 T1-X1 X1-X3 X3-T4 T4-T6 T6-X7 X7-X5 X5-O5"/>
    </vehicle>
    <vehicle id="62" depart="341.00">
        <route edges="O4-X4 X4-T5 T5-X3 X3-T4 T4-T6 T6-T3 T3-X6 X6-O6 O6-X6 X6-T3 T3-T6 T6-T4 T4-X3 X3-T5 T5-X0 X0-L2 L2-T1 T1-T0 T0-L1 L1-T2 T2-T3 T3-X6 X6-O7"/>
    </vehicle>
    <vehicle id="63" depart="346.50">
        <route edges="O4-X4 X4-T5 T5-X3 X3-T4 T4-T6 T6-T3 T3-T2 T2-X2 X2-X1 X1-X0 X0-O2"/>
    </vehicle>
    <vehicle id="64" depart="352.00">
        <route edges="O4-X4 X4-T5 T5-X3 X3-T4 T4-T6 T6-T3 T3-X6 X6-X7 X7-T6 T6-T4 T4-X3 X3-X1 X1-X2 X2-T4 T4-T6 T6-T3 T3-X6 X6-X7 X7-X5 X5-X4 X4-O4"/>
    </vehicle>
    <vehicle id="65" depart="357.50">
        <route edges="O4-X4 X4-T5 T5-X0 X0-X1 X1-X2 X2-T4 T4-X3 X3-X1 X1-X2 X2-T0 T0-T1 T1-L2 L2-X0 X0-X1 X1-T1 T1-L2 L2-X0 X0-T5 T5-X4 X4-O3"/>
    </vehicle>
    <vehicle id="66" depart="363.00">
        <route edges="O2-X0 X0-X1 X1-X3 X3-T5 T5-X0 X0-X1 X1-X2 X2-T4 T4-T6 T6-T3 T3-T2 T2-X2 X2-T0 T0-T1 T1-L2 L2-X0 X0-T5 T5-X4 X4-O4"/>
    </vehicle>
    <vehicle id="67" depart="368.50">
        <route edges="O4-X4 X4-T5 T5-X0 X0-X1 X1-X3 X3-T5 T5-X0 X0-X1 X1-X2 X2-T4 T4-X3 X3-T5 T5-X0 X0-X1 X1-X3 X3-X5 X5-X7 X7-X6 X6-O6"/>
    </vehicle>
    <vehicle id="68" depart="374.00">
        <route edges="O2-X0 X0-L2 L2-T1 T1-X1 X1-X3 X3-X5 X5-X7 X7-X6 X6-T3 T3-T6 T6-X7 X7-X6 X6-O7"/>
    </vehicle>
    <vehicle id="69" depart="379.50">
        <route edges="O7-X6 X6-T3 T3-T2 T2-X2 X2-T4 T4-X3 X3-X1 X1-X2 X2-T4 T4-X3 X3-X5 X5-O5"/>
    </vehicle>
    <vehicle id="70" depart="385.00">
        <route edges="O7-X6 X6-X7 X7-X5 X5-X3 X3-X1 X1-T1 T1-L2 L2-T1 T1-T0 T0-X2 X2-T4 T4-T6 T6-X7 X7-O8"/>
    </vehicle>
    <vehicle id="71" depart="390.50">
        <route edges="O3-X4 X4-X5 X5-X3 X3-T5 T5-X0 X0-X1 X1-X2 X2-T2 T2-T3 T3-X6 X6-X7 X7-X5 X5-X4 X4-O3"/>
    </vehicle>
    <vehicle id="72" depart="396.00">
        <route edges="O6-X6 X6-X7 X7-T6 T6-T3 T3-X6 X6-X7 X7-T6 T6-T4 T4-X2 X2-X1 X1-X3 X3-T4 T4-T6 T6-X7 X7-X5 X5-X4 X4-O3"/>
    </vehicle>
    <vehicle id="73" depart="401.50">
        <route edges="O8-X7 X7-T6 T6-T3 T3-T2 T2-X2 X2-X1 X1-X3 X3-X5 X5-X4 X4-T5 T5-X3 X3-T4 T4-X2 X2-X1 X1-X0 X0-O2"/>
    </vehicle>
    <vehicle id="74" depart="407.00">
        <route edges="O6-X6 X6-T3 T3-T2 T2-L1 L1-T0 T0-T1 T1-L2 L2-T1 T1-T0 T0-X2 X2-X1 X1-X3 X3-X5 X5-X4 X4-O4"/>
    </vehicle>
    <vehicle id="75" depart="412.50">
        <route edges="O8-X7 X7-T6 T6-T4 T4-X3 X3-T5 T5-X0 X0-L2 L2-X0 X0-T5 T5-X4 X4-O4 O4-X4 X4-T5 T5-X3 X3-T4 T4-T6 T6-X7 X7-X5 X5-X4 X4-O4"/>
    </vehicle>
    <vehicle id="76" depart="418.00">
        <route edges="O8-X7 X7-T6 T6-T3 T3-T2 T2-L1 L1-T0 T0-T1 T1-X1 X1-X2 X2-T0 T0-T1 T1-L2 L2-X0 X0-T5 T5-X4 X4-O3"/>
    </vehicle>
    <vehicle id="77" depart="423.50">
        <route edges="O2-X0 X0-X1 X1-X2 X2-T2 T2-T3 T3-T6 T6-T4 T4-X3 X3-T5 T5-X4 X4-X5 X5-X3 X3-X1 X1-X2 X2-T4 T4-T6 T6-T3 T3-X6 X6-O6"/>
    </vehicle>
    <vehicle id="78" depart="429.00">
        <route edges="O2-X0 X0-X1 X1-X3 X3-X5 X5-X7 X7-X6 X6-T3 T3-T6 T6-T4 T4-X3 X3-T5 T5-X0 X0-L2 L2-T1 T1-T0 T0-L1 L1-T2 T2-T3 T3-X6 X6-O6"/>
    </vehicle>
    <vehicle id="79" depart="434.50">
        <route edges="O5-X5 X5-X3 X3-T5 T5-X4 X4-X5 X5-X7 X7-X6 X6-T3 T3-T2 T2-X2 X2-X1 X1-X0 X0-T5 T5-X3 X3-T4 T4-T6 T6-T3 T3-X6 X6-O6"/>
    </vehicle>
    <vehicle id="80" depart="440.00">
        <route edges="O6-X6 X6-T3 T3-T2 T2-X2 X2-X1 X1-X0 X0-T5 T5-X4 X4-O4 O4-X4 X4-T5 T5-X0 X0-X1 X1-X2 X2-T4 T4-T6 T6-X7 X7-X5 X5-X4 X4-T5 T5-X0 X0-O2"/>
    </vehicle>
    <vehicle id="81" depart="445.50">
        <route edges="O3-X4 X4-T5 T5-X0 X0-L2 L2-T1 T1-T0 T0-L1 L1-T0 T0-T1 T1-L2 L2-T1 T1-T0 T0-L1 L1-T2 T2-T3 T3-X6 X6-O7"/>
    </vehicle>
    <vehicle id="82" depart="451.00">
        <route edges="O7-X6 X6-X7 X7-T6 T6-T4 T4-X2 X2-T2 T2-T3 T3-T6 T6-T4 T4-X3 X3-X1 X1-X2 X2-T4 T4-X3 X3-X5 X5-X4 X4-O3"/>
    </vehicle>
    <vehicle id="83" depart="456.50">
        <route edges="O4-X4 X4-X5 X5-X7 X7-X6 X6-T3 T3-T6 T6-T4 T4-X3 X3-X5 X5-X4 X4-T5 T5-X0 X0-X1 X1-X2 X2-T2 T2-T3 T3-X6 X6-O7"/>
    </vehicle>
    <vehicle id="84" depart="462.00">
        <route edges="O5-X5 X5-X3 X3-X1 X1-T1 T1-L2 L2-T1 T1-T0 T0-X2 X2-T4 T4-X3 X3-X1 X1-T1 T1-T0 T0-L1 L1-T2 T2-X2 X2-X1 X1-X0 X0-O2"/>
    </vehicle>
    <vehicle id="85" depart="467.50">
        <route edges="O5-X5 X5-X3 X3-T4 T4-X2 X2-X1 X1-X3 X3-X5 X5-X7 X7-T6 T6-T4 T4-X3 X3-T5 T5-X0 X0-X1 X1-X3 X3-T5 T5-X4 X4-O4"/>
    </vehicle>
    <vehicle id="86" depart="473.00">
        <route edges="O4-X4 X4-T5 T5-X0 X0-L2 L2-X0 X0-X1 X1-X2 X2-T2 T2-T3 T3-X6 X6-X7 X7-X5 X5-O5 O5-X5 X5-X7 X7-T6 T6-T4 T4-X3 X3-T5 T5-X0 X0-O2"/>
    </vehicle>
    <vehicle id="87" depart="478.50">
        <route edges="O2-X0 X0-X1 X1-X2 X2-T4 T4-T6 T6-T3 T3-T2 T2-L1 L1-T0 T0-T1 T1-L2 L2-T1 T1-T0 T0-L1 L1-T2 T2-T3 T3-T6 T6-T4 T4-X3 X3-T5 T5-X4 X4-O4"/>
    </vehicle>
    <vehicle id="88" depart="484.00">
        <route edges="O5-X5 X5-X3 X3-X1 X1-T1 T1-T0 T0-L1 L1-T0 T0-X2 X2-T4 T4-T6 T6-X7 X7-X5 X5-X3 X3-X1 X1-X2 X2-T0 T0-T1 T1-X1 X1-X3 X3-X5 X5-O5"/>
    </vehicle>
    <vehicle id="89" depart="489.50">
        <route edges="O3-X4 X4-X5 X5-X7 X7-T6 T6-T4 T4-X3 X3-T5 T5-X0 X0-L2 L2-X0 X0-T5 T5-X3 X3-T4 T4-X2 X2-X1 X1-X0 X0-T5 T5-X4 X4-O3"/>
    </vehicle>
    <vehicle id="90" depart="495.00">
        <route edges="O7-X6 X6-X7 X7-X5 X5-X3 X3-T4 T4-T6 T6-T3 T3-T2 T2-X2 X2-T4 T4-X3 X3-X1 X1-X0 X0-T5 T5-X4 X4-O4"/>
    </vehicle>
    <vehicle id="91" depart="500.50">
        <route edges="O5-X5 X5-X4 X4-T5 T5-X0 X0-L2 L2-T1 T1-T0 T0-X2 X2-T4 T4-T6 T6-X7 X7-O8"/>
    </vehicle>
    <vehicle id="92" depart="506.00">
        <route edges="O6-X6 X6-T3 T3-T2 T2-X2 X2-T0 T0-L1 L1-T2 T2-X2 X2-X1 X1-X0 X0-T5 T5-X3 X3-T4 T4-T6 T6-X7 X7-X5 X5-X4 X4-O4"/>
    </vehicle>
    <vehicle id="93" depart="511.50">
        <route edges="O4-X4 X4-X5 X5-X3 X3-T5 T5-X4 X4-X5 X5-X7 X7-T6 T6-T4 T4-X2 X2-T0 T0-T1 T1-X1 X1-X3 X3-X5 X5-O5"/>
    </vehicle>
    <vehicle id="94" depart="517.00">
        <route edges="O2-X0 X0-X1 X1-X2 X2-T2 T2-L1 L1-T0 T0-X2 X2-T2 T2-T3 T3-T6 T6-T4 T4-X3 X3-X5 X5-X7 X7-O8"/>
    </vehicle>
    <vehicle id="95" depart="522.50">
        <route edges="O6-X6 X6-T3 T3-T2 T2-X2 X2-T4 T4-T6 T6-T3 T3-T2 T2-L1 L1-T0 T0-T1 T1-L2 L2-X0 X0-T5 T5-X4 X4-O3"/>
    </vehicle>
    <vehicle id="96" depart="528.00">
        <route edges="O7-X6 X6-X7 X7-T6 T6-T3 T3-T2 T2-X2 X2-X1 X1-X0 X0-T5 T5-X3 X3-T4 T4-X2 X2-X1 X1-X0 X0-T5 T5-X4 X4-O4"/>
    </vehicle>
    <vehicle id="97" depart="533.50">
        <route edges="O6-X6 X6-T3 T3-T2 T2-L1 L1-T0 T0-T1 T1-L2 L2-T1 T1-X1 X1-X3 X3-X5 X5-X7 X7-X6 X6-T3 T3-T2 T2-X2 X2-X1 X1-X0 X0-L2 L2-X0 X0-T5 T5-X4 X4-O4"/>
    </vehicle>
    <vehicle id="98" depart="539.00">
        <route edges="O4-X4 X4-T5 T5-X0 X0-X1 X1-X2 X2-T2 T2-L1 L1-T2 T2-X2 X2-X1 X1-X3 X3-X5 X5-X7 X7-X6 X6-O7"/>
    </vehicle>
    <vehicle id="99" depart="544.50">
        <route edges="O8-X7 X7-T6 T6-T4 T4-X2 X2-X1 X1-X3 X3-T5 T5-X0 X0-L2 L2-T1 T1-T0 T0-X2 X2-T2 T2-L1 L1-T2 T2-T3 T3-X6 X6-X7 X7-X5 X5-X4 X4-O3"/>
    </vehicle>
    <vehicle id="100" depart="550.00">
        <route edges="O2-X0 X0-X1 X1-X2 X2-T4 T4-T6 T6-T3 T3-T2 T2-X2 X2-T4 T4-X3 X3-X1 X1-X2 X2-T2 T2-T3 T3-X6 X6-X7 X7-X5 X5-X3 X3-T4 T4-T6 T6-X7 X7-O8"/>
    </vehicle>
    <vehicle id="101" depart="555.50">
        <route edges="O5-X5 X5-X3 X3-X1 X1-X2 X2-T4 T4-X3 X3-X1 X1-X2 X2-T0 T0-T1 T1-X1 X1-X3 X3-X5 X5-X4 X4-T5 T5-X0 X0-O2"/>
    </vehicle>
    <vehicle id="102" depart="561.00">
        <route edges="O6-X6 X6-T3 T3-T2 T2-L1 L1-T0 T0-T1 T1-X1 X1-X2 X2-T4 T4-X3 X3-T5 T5-X0 X0-X1 X1-X2 X2-T2 T2-T3 T3-X6 X6-O6"/>
    </vehicle>
    <vehicle id="103" depart="566.50">
        <route edges="O7-X6 X6-X7 X7-X5 X5-X3 X3-X1 X1-X0 X0-O2 O2-X0 X0-X1 X1-X3 X3-T5 T5-X0 X0-X1 X1-X3 X3-X5 X5-X7 X7-X6 X6-T3 T3-T2 T2-X2 X2-X1 X1-X0 X0-O2"/>
    </vehicle>
    <vehicle id="104" depart="572.00">
        <route edges="O7-X6 X6-X7 X7-X5 X5-X4 X4-O3 O3-X4 X4-X5 X5-X7 X7-T6 T6-T4 T4-X3 X3-T5 T5-X0 X0-L2 L2-T1 T1-T0 T0-L1 L1-T2 T2-T3 T3-X6 X6-O6"/>
    </vehicle>
    <vehicle id="105" depart="577.50">
        <route edges="O5-X5 X5-X3 X3-X1 X1-T1 T1-T0 T0-L1 L1-T2 T2-T3 T3-T6 T6-T4 T4-X2 X2-T2 T2-T3 T3-X6 X6-X7 X7-X5 X5-O5"/>
    </vehicle>
    <vehicle id="106" depart="583.00">
        <route edges="O5-X5 X5-X4 X4-T5 T5-X3 X3-T4 T4-X2 X2-X1 X1-X3 X3-X5 X5-X7 X7-O8 O8-X7 X7-X5 X5-X4 X4-O3"/>
    </vehicle>
    <vehicle id="107" depart="588.50">
        <route edges="O6-X6 X6-X7 X7-O8 O8-X7 X7-X6 X6-T3 T3-T6 T6-T4 T4-X3 X3-T5 T5-X0 X0-O2"/>
    </vehicle>
    <vehicle id="108" depart="594.00">
        <route edges="O2-X0 X0-T5 T5-X3 X3-X1 X1-X0 X0-O2 O2-X0 X0-X1 X1-X2 X2-T2 T2-L1 L1-T0 T0-X2 X2-T4 T4-T6 T6-T3 T3-X6 X6-O7"/>
    </vehicle>
    <vehicle id="109" depart="599.50">
        <route edges="O6-X6 X6-T3 T3-T2 T2-L1 L1-T0 T0-T1 T1-L2 L2-T1 T1-T0 T0-L1 L1-T2 T2-T3 T3-X6 X6-X7 X7-O8"/>
    </vehicle>
    <vehicle id="110" depart="605.00">
        <route edges="O5-X5 X5-X4 X4-O3 O3-X4 X4-X5 X5-X7 X7-X6 X6-T3 T3-T2 T2-X2 X2-X1 X1-T1 T1-T0 T0-X2 X2-T4 T4-X3 X3-X5 X5-O5"/>
    </vehicle>
    <vehicle id="111" depart="610.50">
        <route edges="O2-X0 X0-X1 X1-X2 X2-T2 T2-L1 L1-T2 T2-X2 X2-X1 X1-X0 X0-T5 T5-X3 X3-X1 X1-X0 X0-O2"/>
    </vehicle>
    <vehicle id="112" depart="616.00">
        <route edges="O7-X6 X6-T3 T3-T2 T2-L1 L1-T2 T2-T3 T3-T6 T6-T4 T4-X2 X2-T0 T0-T1 T1-X1 X1-X3 X3-X5 X5-X7 X7-X6 X6-O7"/>
    </vehicle>
    <vehicle id="113" depart="621.50">
        <route edges="O3-X4 X4-T5 T5-X3 X3-T4 T4-T6 T6-T3 T3-X6 X6-X7 X7-X5 X5-X3 X3-X1 X1-X0 X0-T5 T5-X4 X4-X5 X5-O5"/>
    </vehicle>
    <vehicle id="114" depart="627.00">
        <route edges="O4-X4 X4-T5 T5-X3 X3-T4 T4-T6 T6-X7 X7-X5 X5-X3 X3-X1 X1-X2 X2-T2 T2-T3 T3-T6 T6-X7 X7-X6 X6-O6"/>
    </vehicle>
    <vehicle id="115" depart="632.50">
        <route edges="O8-X7 X7-T6 T6-T4 T4-X3 X3-X1 X1-X2 X2-T4 T4-X3 X3-X5 X5-X7 X7-T6 T6-T4 T4-X2 X2-X1 X1-X3 X3-X5 X5-X7 X7-X6 X6-O6"/>
    </vehicle>
    <vehicle id="116" depart="638.00">
        <route edges="O6-X6 X6-T3 T3-T2 T2-L1 L1-T2 T2-T3 T3-T6 T6-T4 T4-X3 X3-X1 X1-T1 T1-T0 T0-X2 X2-T2 T2-T3 T3-X6 X6-X7 X7-O8"/>
    </vehicle>
    <vehicle id="117" depart="643.50">
        <route edges="O3-X4 X4-X5 X5-X3 X3-X1 X1-X2 X2-T0 T0-T1 T1-X1 X1-X3 X3-T4 T4-T6 T6-X7 X7-X5 X5-X4 X4-T5 T5-X0 X0-L2 L2-X0 X0-T5 T5-X4 X4-X5 X5-X7 X7-X6 X6-O7"/>
    </vehicle>
    <vehicle id="118" depart="649.00">
        <route edges="O6-X6 X6-T3 T3-T6 T6-T4 T4-X2 X2-T2 T2-L1 L1-T0 T0-X2 X2-X1 X1-T1 T1-L2 L2-T1 T1-X1 X1-X3 X3-X5 X5-O5"/>
    </vehicle>
    <vehicle id="119" depart="654.50">
        <route edges="O7-X6 X6-X7 X7-X5 X5-X4 X4-T5 T5-X0 X0-L2 L2-X0 X0-T5 T5-X3 X3-T4 T4-T6 T6-X7 X7-X5 X5-X4 X4-O3"/>
    </vehicle>
    <vehicle id="120" depart="660.00">
        <route edges="O6-X6 X6-T3 T3-T2 T2-L1 L1-T0 T0-T1 T1-L2 L2-X0 X0-T5 T5-X3 X3-T4 T4-X2 X2-X1 X1-X0 X0-T5 T5-X3 X3-X1 X1-X0 X0-O2"/>
    </vehicle>
    <vehicle id="121" depart="665.50">
        <route edges="O7-X6 X6-X7 X7-T6 T6-T4 T4-X2 X2-X1 X1-X0 X0-T5 T5-X3 X3-X1 X1-X0 X0-O2"/>
    </vehicle>
    <vehicle id="122" depart="671.00">
        <route edges="O3-X4 X4-T5 T5-X0 X0-L2 L2-T1 T1-T0 T0-X2 X2-T4 T4-T6 T6-T3 T3-T2 T2-X2 X2-X1 X1-T1 T1-T0 T0-X2 X2-X1 X1-X0 X0-O2"/>
    </vehicle>
    <vehicle id="123" depart="676.50">
        <route edges="O6-X6 X6-X7 X7-X5 X5-X4 X4-T5 T5-X3 X3-X5 X5-O5"/>
    </vehicle>
    <vehicle id="124" depart="682.00">
        <route edges="O7-X6 X6-X7 X7-T6 T6-T3 T3-X6 X6-X7 X7-X5 X5-X4 X4-O3 O3-X4 X4-X5 X5-X7 X7-T6 T6-T3 T3-X6 X6-O6"/>
    </vehicle>
    <vehicle id="125" depart="687.50">
        <route edges="O4-X4 X4-T5 T5-X0 X0-L2 L2-T1 T1-X1 X1-X2 X2-T2 T2-T3 T3-X6 X6-O6 O6-X6 X6-T3 T3-T2 T2-L1 L1-T2 T2-T3 T3-X6 X6-O7"/>
    </vehicle>
    <vehicle id="126" depart="693.00">
        <route edges="O8-X7 X7-T6 T6-T4 T4-X3 X3-T5 T5-X0 X0-L2 L2-T1 T1-T0 T0-L1 L1-T2 T2-T3 T3-T6 T6-T4 T4-X3 X3-T5 T5-X4 X4-O4"/>
    </vehicle>
    <vehicle id="127" depart="698.50">
        <route edges="O6-X6 X6-T3 T3-T2 T2-L1 L1-T2 T2-T3 T3-X6 X6-O6 O6-X6 X6-T3 T3-T2 T2-X2 X2-X1 X1-X0 X0-T5 T5-X4 X4-O4"/>
    </vehicle>
    <vehicle id="128" depart="704.00">
        <route edges="O2-X0 X0-X1 X1-X2 X2-T2 T2-T3 T3-T6 T6-T4 T4-X3 X3-X1 X1-T1 T1-T0 T0-X2 X2-T4 T4-T6 T6-X7 X7-O8"/>
    </vehicle>
    <vehicle id="129" depart="709.50">
        <route edges="O6-X6 X6-T3 T3-T6 T6-T4 T4-X3 X3-X1 X1-X2 X2-T4 T4-T6 T6-T3 T3-X6 X6-X7 X7-T6 T6-T4 T4-X2 X2-X1 X1-X3 X3-X5 X5-O5"/>
    </vehicle>
    <vehicle id="130" depart="715.00">
        <route edges="O3-X4 X4-T5 T5-X0 X0-X1 X1-X3 X3-T4 T4-X2 X2-T0 T0-T1 T1-X1 X1-X3 X3-T4 T4-T6 T6-T3 T3-X6 X6-O7"/>
    </vehicle>
    <vehicle id="131" depart="720.50">
        <route edges="O4-X4 X4-T5 T5-X3 X3-T4 T4-T6 T6-T3 T3-T2 T2-X2 X2-X1 X1-X3 X3-X5 X5-X4 X4-O3 O3-X4 X4-X5 X5-X7 X7-X6 X6-T3 T3-T6 T6-T4 T4-X3 X3-T5 T5-X4 X4-O3"/>
    </vehicle>
    <vehicle id="132" depart="726.00">
        <route edges="O7-X6 X6-X7 X7-O8 O8-X7 X7-X6 X6-T3 T3-T2 T2-X2 X2-X1 X1-T1 T1-T0 T0-L1 L1-T2 T2-T3 T3-X6 X6-X7 X7-X5 X5-X4 X4-O3"/>
    </vehicle>
    <vehicle id="133" depart="731.50">
        <route edges="O8-X7 X7-T6 T6-T4 T4-X2 X2-X1 X1-X0 X0-L2 L2-T1 T1-T0 T0-X2 X2-T4 T4-T6 T6-T3 T3-X6 X6-O7"/>
    </vehicle>
    <vehicle id="134" depart="737.00">
        <route edges="O3-X4 X4-T5 T5-X0 X0-X1 X1-X3 X3-T5 T5-X4 X4-X5 X5-X3 X3-T4 T4-X2 X2-X1 X1-X0 X0-T5 T5-X4 X4-O4"/>
    </vehicle>
    <vehicle id="135" depart="742.50">
        <route edges="O6-X6 X6-X7 X7-T6 T6-T4 T4-X3 X3-X5 X5-X7 X7-T6 T6-T4 T4-X3 X3-X1 X1-X2 X2-T2 T2-T3 T3-X6 X6-O7"/>
    </vehicle>
    <vehicle id="136" depart="748.00">
        <route edges="O7-X6 X6-X7 X7-X5 X5-X3 X3-X1 X1-X0 X0-T5 T5-X4 X4-O4 O4-X4 X4-T5 T5-X0 X0-L2 L2-T1 T1-X1 X1-X3 X3-X5 X5-X7 X7-O8"/>
    </vehicle>
    <vehicle id="137" depart="753.50">
        <route edges="O4-X4 X4-T5 T5-X0 X0-L2 L2-T1 T1-T0 T0-X2 X2-X1 X1-X0 X0-L2 L2-T1 T1-X1 X1-X3 X3-X5 X5-O5"/>
    </vehicle>
    <vehicle id="138" depart="759.00">
        <route edges="O2-X0 X0-T5 T5-X3 X3-X1 X1-T1 T1-L2 L2-X0 X0-T5 T5-X4 X4-X5 X5-X3 X3-T5 T5-X4 X4-X5 X5-O5"/>
    </vehicle>
    <vehicle id="139" depart="764.50">
        <route edges="O4-X4 X4-T5 T5-X0 X0-L2 L2-T1 T1-T0 T0-L1 L1-T2 T2-X2 X2-T4 T4-X3 X3-X5 X5-O5"/>
    </vehicle>
    <vehicle id="140" depart="770.00">
        <route edges="O6-X6 X6-X7 X7-X5 X5-X4 X4-T5 T5-X0 X0-L2 L2-T1 T1-T0 T0-L1 L1-T0 T0-T1 T1-L2 L2-X0 X0-T5 T5-X4 X4-O3"/>
    </vehicle>
    <vehicle id="141" depart="775.50">
        <route edges="O8-X7 X7-T6 T6-T4 T4-X2 X2-X1 X1-X3 X3-T4 T4-X2 X2-X1 X1-X0 X0-T5 T5-X4 X4-X5 X5-X7 X7-X6 X6-O7 O7-X6 X6-X7 X7-O8"/>
    </vehicle>
    <vehicle id="142" depart="781.00">
        <route edges="O2-X0 X0-X1 X1-X2 X2-T4 T4-X3 X3-X5 X5-X4 X4-T5 T5-X0 X0-X1 X1-X2 X2-T4 T4-X3 X3-X5 X5-O5"/>
    </vehicle>
    <vehicle id="143" depart="786.50">
        <route edges="O7-X6 X6-X7 X7-X5 X5-X3 X3-X1 X1-T1 T1-L2 L2-T1 T1-T0 T0-X2 X2-T4 T4-T6 T6-X7 X7-O8"/>
    </vehicle>
    <vehicle id="144" depart="792.00">
        <route edges="O3-X4 X4-X5 X5-X3 X3-X1 X1-X2 X2-T4 T4-T6 T6-X7 X7-X5 X5-X3 X3-X1 X1-X2 X2-T2 T2-T3 T3-X6 X6-O6"/>
    </vehicle>
    <vehicle id="145" depart="797.50">
        <route edges="O6-X6 X6-X7 X7-X5 X5-X3 X3-X1 X1-T1 T1-L2 L2-T1 T1-X1 X1-X3 X3-T4 T4-T6 T6-T3 T3-T2 T2-L1 L1-T0 T0-T1 T1-L2 L2-X0 X0-T5 T5-X4 X4-O4"/>
    </vehicle>
    <vehicle id="146" depart="803.00">
        <route edges="O8-X7 X7-T6 T6-T4 T4-X3 X3-T5 T5-X0 X0-L2 L2-X0 X0-X1 X1-T1 T1-L2 L2-X0 X0-T5 T5-X4 X4-O3"/>
    </vehicle>
    <vehicle id="147" depart="808.50">
        <route edges="O5-X5 X5-X3 X3-X1 X1-X2 X2-T2 T2-T3 T3-X6 X6-X7 X7-T6 T6-T4 T4-X3 X3-T5 T5-X4 X4-O4"/>
    </vehicle>
    <vehicle id="148" depart="814.00">
        <route edges="O6-X6 X6-T3 T3-T2 T2-L1 L1-T0 T0-X2 X2-T4 T4-T6 T6-X7 X7-X6 X6-T3 T3-T2 T2-X2 X2-T4 T4-X3 X3-T5 T5-X4 X4-O3"/>
    </vehicle>
    <vehicle id="149" depart="819.50">
        <route edges="O5-X5 X5-X3 X3-T4 T4-X2 X2-X1 X1-X0 X0-O2 O2-X0 X0-X1 X1-X2 X2-T4 T4-X3 X3-X5 X5-X7 X7-X6 X6-O7"/>
    </vehicle>
    <vehicle id="150" depart="825.00">
        <route edges="O6-X6 X6-T3 T3-T6 T6-T4 T4-X2 X2-T2 T2-T3 T3-X6 X6-X7 X7-X5 X5-X3 X3-T4 T4-T6 T6-X7 X7-X6 X6-T3 T3-T6 T6-T4 T4-X3 X3-T5 T5-X4 X4-O4"/>
    </vehicle>
    <vehicle id="151" depart="830.50">
        <route edges="O4-X4 X4-T5 T5-X0 X0-X1 X1-T1 T1-L2 L2-T1 T1-T0 T0-X2 X2-T2 T2-L1 L1-T0 T0-X2 X2-T4 T4-X3 X3-T5 T5-X4 X4-O3"/>
    </vehicle>
    <vehicle id="152" depart="836.00">
        <route edges="O2-X0 X0-X1 X1-X2 X2-T2 T2-T3 T3-X6 X6-X7 X7-T6 T6-T4 T4-X3 X3-X5 X5-X4 X4-T5 T5-X3 X3-X5 X5-O5"/>
    </vehicle>
    <vehicle id="153" depart="841.50">
        <route edges="O5-X5 X5-X3 X3-X1 X1-X2 X2-T4 T4-X3 X3-X1 X1-X2 X2-T2 T2-T3 T3-T6 T6-T4 T4-X3 X3-T5 T5-X0 X0-L2 L2-T1 T1-T0 T0-X2 X2-T4 T4-T6 T6-X7 X7-O8"/>
    </vehicle>
    <vehicle id="154" depart="847.00">
        <route edges="O7-X6 X6-T3 T3-T2 T2-L1 L1-T2 T2-T3 T3-X6 X6-X7 X7-X5 X5-X4 X4-T5 T5-X0 X0-X1 X1-X2 X2-T4 T4-X3 X3-T5 T5-X0 X0-O2"/>
    </vehicle>
    <vehicle id="155" depart="852.50">
        <route edges="O4-X4 X4-T5 T5-X0 X0-L2 L2-T1 T1-T0 T0-X2 X2-T4 T4-X3 X3-X5 X5-X4 X4-T5 T5-X3 X3-X5 X5-O5"/>
    </vehicle>
    <vehicle id="156" depart="858.00">
        <route edges="O4-X4 X4-T5 T5-X0 X0-L2 L2-T1 T1-T0 T0-X2 X2-T2 T2-L1 L1-T2 T2-T3 T3-X6 X6-O6"/>
    </vehicle>
    <vehicle id="157" depart="863.50">
        <route edges="O3-X4 X4-X5 X5-X3 X3-X1 X1-T1 T1-T0 T0-X2 X2-T4 T4-T6 T6-X7 X7-X6 X6-T3 T3-T6 T6-T4 T4-X3 X3-X5 X5-O5"/>
    </vehicle>
    <vehicle id="158" depart="869.00">
        <route edges="O4-X4 X4-T5 T5-X3 X3-X1 X1-T1 T1-L2 L2-T1 T1-X1 X1-X3 X3-T5 T5-X4 X4-O4"/>
    </vehicle>
    <vehicle id="159" depart="874.50">
        <route edges="O4-X4 X4-T5 T5-X3 X3-T4 T4-T6 T6-T3 T3-T2 T2-L1 L1-T2 T2-T3 T3-X6 X6-X7 X7-X5 X5-X3 X3-T4 T4-T6 T6-X7 X7-X5 X5-X4 X4-O4"/>
    </vehicle>
    <vehicle id="160" depart="880.00">