<additional>
<vType id="myType" accel="0.6" decel="4.5" sigma="0.5" length="1" minGap="1" maxSpeed="5" guiShape="passenger"/>

</additional>
